*Heading
** Job name: Job-2 Model name: Model-1
** Generated by: Abaqus/CAE 2023
*Preprint, echo=NO, model=NO, history=NO, contact=NO
**
** PARTS
**
*Part, name=Part-1
*End Part
**  
**
** ASSEMBLY
**
*Assembly, name=Assembly
**  
*Instance, name=Part-1-1, part=Part-1
*Node
      1, 0.000199999995, 9.99999975e-05
      2, 0.000699999975, 9.99999975e-05
      3, 0.000699999975, 0.000600000028
      4, -0.000300000014, 0.000600000028
      5, -0.000300000014, 0.000103999999
      6, -0.000300000014, 9.62312115e-05
      7, -0.000300000014, -0.00039999999
      8, 0.000699999975, -0.00039999999
      9, 0.000201200004, 9.99999975e-05
     10, 0.000202697149, 9.99999975e-05
     11, 0.000204565033, 9.99999975e-05
     12, 0.000206895464, 9.99999975e-05
     13, 0.000209802951, 9.99999975e-05
     14, 0.000213430423, 9.99999975e-05
     15, 0.000217956156, 9.99999975e-05
     16, 0.000223602561, 9.99999975e-05
     17, 0.000230647172, 9.99999975e-05
     18, 0.000239436224, 9.99999975e-05
     19, 0.000250401674, 9.99999975e-05
     20, 0.000264082424, 9.99999975e-05
** ... 2831 like lines cut
*Element, type=CPS6
  1,  149,  146,   12,  745,  746,  747
  2,  146,  143,   11,  748,  749,  750
  3,  181,   56,  179,  751,  752,  753
  4,  400,    2,   29,  754,  755,  756
  5,  421,  400,  382,  757,  758,  759
  6,  435,  414,  420,  760,  761,  762
  7,  391,  388,   33,  763,  764,  765
  8,  375,  374,  312,  766,  767,  768
  9,  383,  372,   26,  769,  770,  771
 10,  312,  256,  286,  772,  773,  774
 11,  226,  183,   24,  775,  776,  777
 12,  183,  180,   23,  778,  779,  780
 13,  221,  218,  177,  781,  782,  783
 14,  180,  177,   22,  784,  785,  786
 15,  177,  174,   21,  787,  788,  789
 16,  174,  171,   20,  790,  791,  792
 17,  171,  168,   19,  793,  794,  795
 18,  165,  162,   17,  796,  797,  798
 19,  162,  158,   16,  799,  800,  801
 20,  158,  155,   15,  802,  803,  804
** ... 1344 like lines cut
*Nset, nset=Set-1, generate
    1,  2851,     1
*Elset, elset=Set-1, generate
    1,  1364,     1
** Section: Section-1
*Solid Section, elset=Set-1, material=Material-1
1.,
*End Instance
**  
*Nset, nset=Set-1, instance=Part-1-1
    7,    8,  128,  129,  130,  131,  132,  133,  134,  135,  136, 1962, 1987, 2788, 2805, 2808
 2811, 2816, 2820, 2823, 2824
*Nset, nset=Set-2, instance=Part-1-1
    3,    4,   35,   36,   37,   38,   39,   40,   41,   42,   43,  829,  847, 1698, 1702, 1706
 1707, 1715, 1720, 1721, 1722
*Nset, nset=Set-72, instance=Part-1-1
    7,    8,  128,  129,  130,  131,  132,  133,  134,  135,  136, 1962, 1987, 2788, 2805, 2808
 2811, 2816, 2820, 2823, 2824
*Elset, elset=Set-72, instance=Part-1-1
  734,  743, 1301, 1315, 1317, 1319, 1322, 1324, 1327, 1328
*Nset, nset=Set-73, instance=Part-1-1
    3,    4,   35,   36,   37,   38,   39,   40,   41,   42,   43,  829,  847, 1698, 1702, 1706
 1707, 1715, 1720, 1721, 1722
*Elset, elset=Set-73, instance=Part-1-1
  29,  37, 577, 579, 581, 582, 586, 589, 590, 591
*End Assembly
** 
** MATERIALS
** 
*Material, name=Material-1
*Elastic
 2.1e+11, 0.3
** ----------------------------------------------------------------
** 
** STEP: Step-1
** 
*Step, name=Step-1, nlgeom=NO
*Static
1., 1., 1e-05, 1.
** 
** BOUNDARY CONDITIONS
** 
** Name: BC-1 Type: //
*Boundary
Set-72, PINNED
** Name: BC-2 Type: /
*Boundary
Set-73, 2, 2, 2e-06
** 
** OUTPUT REQUESTS
** 
*Restart, write, frequency=0
** 
** FIELD OUTPUT: F-Output-1
** 
*Output, field
*Node Output
U, 
*Element Output, directions=YES
ELEDEN, ELEN, ENER, LE, PE, PEEQ, PEMAG, S
** 
** HISTORY OUTPUT: H-Output-1
** 
*Output, history, variable=PRESELECT
*End Step
